*Node 
1,-0.000047,-0.000047 
2,-0.000047,0.124953 
3,-0.000047,0.249953 
4,-0.000047,0.374953 
5,-0.000047,0.499953 
6,-0.000047,0.624953 
7,-0.000047,0.749953 
8,-0.000047,0.874953 
9,-0.000047,0.999953 
10,-0.000047,1.124953 
11,-0.000047,1.249953 
12,-0.000047,1.374953 
13,-0.000047,1.499953 
14,-0.000047,1.624953 
15,-0.000047,1.749953 
16,-0.000047,1.874953 
17,-0.000047,1.999953 
18,-0.000047,2.124953 
19,-0.000047,2.249953 
20,-0.000047,2.374953 
** ... 4344 like lines cut
*User element, nodes=4,type=U4, properties=3,coordinates=2, variables=800 
8
*Element, type=U4
1,32,65,66,33 
2,31,64,65,32 
3,30,63,64,31 
4,29,62,63,30 
5,28,61,62,29 
6,27,60,61,28 
7,26,59,60,27 
8,25,58,59,26 
9,24,57,58,25 
10,23,56,57,24 
11,22,55,56,23 
12,21,54,55,22 
13,20,53,54,21 
14,19,52,53,20 
15,18,51,52,19 
16,17,50,51,18 
17,16,49,50,17 
18,15,48,49,16 
19,14,47,48,15 
20,13,46,47,14 
** ... 2227 like lines cut
*User element, nodes=5,type=U5, properties=3,coordinates=2, variables=800 
8
*Element, type=U5 
302,349,350,351,317,316 
332,395,396,397,353,352 
335,385,386,387,348,347 
336,383,384,385,347,346 
364,563,564,565,382,381 
365,561,562,563,381,380 
388,1073,917,561,560,1072 
408,1109,1407,1598,1599,1110 
409,1571,1379,1073,1072,1570 
431,1969,1737,1571,1570,1968 
451,2001,2215,2415,2416,2002 
452,2387,2185,1969,1968,2386 
472,2415,2628,2850,2851,2416 
473,2820,2596,2387,2386,2819 
495,3040,2919,2820,2819,3039 
517,3058,3057,3056,3320,3321 
519,3298,3162,3040,3039,3297 
542,3319,3487,3736,3737,3320 
543,3703,3460,3298,3297,3702 
567,3736,3735,3734,3981,3982 
** ... 647 like lines cut
*User element, nodes=6,type=U6, properties=3,coordinates=2, variables=800 
8 
*Element, type=U6 
333,351,367,393,394,395,352 
334,387,388,389,365,349,348 
362,397,437,615,616,617,398 
363,565,566,567,414,383,382 
387,617,945,1107,1108,1109,618 
494,2850,2849,2848,2940,3058,3059 
518,3056,3055,3054,3182,3319,3320 
568,3734,3733,3732,3927,3980,3981 
569,3966,3894,3705,3704,3703,3965 
597,3978,3977,3976,3999,4018,4019 
598,4014,3995,3968,3967,3966,4013 
939,393,413,430,431,432,394 
940,422,423,424,409,389,388 
946,436,473,613,614,615,437 
947,568,569,570,443,416,415 
951,925,926,927,741,568,567 
959,943,1019,1104,1105,1106,944 
961,1076,1077,1078,999,920,919 
966,1106,1255,1403,1404,1405,1107 
971,1596,1595,1594,1700,1753,1754 
** ... 204 like lines cut
*User element, nodes=7,type=U7, properties=3,coordinates=2, variables=800 
8 
*Element, type=U7 
430,1598,1597,1596,1754,1999,2000,2001 
960,924,1003,1086,1087,1088,1004,925 
987,2933,2894,2835,2834,2833,2893,2932 
1312,670,717,757,758,759,718,671 
1318,771,820,859,860,861,821,772 
1406,1531,1548,1583,1584,1585,1549,1532 
1422,1724,1723,1722,1734,1747,1748,1749 
1491,2337,2338,2339,2316,2300,2299,2298 
1569,2890,2889,2888,2901,2905,2906,2907 
*Elset, elset=E1,generate 
1,3147,1 
*Uel property, elset=E1 
5e-06,5e-06,0.001
*Nset, nset=Node, generate 
1,4364,1 
*Nset, nset=bottom 
1,34,67,100,133,166,199,232,265,298,
331,368,549,1061,1559,1957,2375,
2808,3028,3286,3691,3953,4000,
4035,4068,4101,4134,4167,4200,
4233,4266,4299,4332, 
*Nset, nset=top 
33,66,99,132,165,198,231,264,
297,330,364,408,627,1118,1607,
2010,2424,2859,3068,3331,3748,
3994,4034,4067,4100,4133,4166,
4199,4232,4265,4298,4331,4364,
*Material, name=MATERIAL-1
*Density
2000.,
*Elastic
10000., 0.3
*Permeability, specific=10.
5e-06,5e-06
** 
** PREDEFINED FIELDS
** 
** Name: IC-1   Type: Void ratio
*Initial Conditions, TYPE=RATIO
Node, 1.
** ----------------------------------------------------------------
** 
** STEP: Step-1
** 
*Step, name=Step-1, nlgeom=NO, inc=2000
*Soils, consolidation, end=PERIOD
1., 2000., , ,
** 
** BOUNDARY CONDITIONS
** 
** Name: Por-BC-1 Type: Pore pressure
*Boundary
top, 8, 8, 10.
** Name: Por-BC-2 Type: Pore pressure
*Boundary
bottom, 8, 8, 3.
** 
** OUTPUT REQUESTS
** 
*Restart, write, frequency=0
** 
** FIELD OUTPUT: F-Output-1
** 
*Output, field
*Node Output
POR, 
** 
** HISTORY OUTPUT: H-Output-1
** 
*Output, history, variable=PRESELECT
*End Step 
