*Node 
1,0.000488,0.000488 
2,0.000488,0.125488 
3,0.000488,0.187988 
4,0.000488,0.250488 
5,0.000488,0.312988 
6,0.000488,0.375488 
7,0.000488,0.437988 
8,0.000488,0.469238 
9,0.000488,0.500488 
10,0.000488,0.516113 
11,0.000488,0.531738 
12,0.000488,0.547363 
13,0.000488,0.562988 
14,0.000488,0.594238 
15,0.000488,0.625488 
16,0.000488,0.687988 
17,0.000488,0.719238 
18,0.000488,0.750488 
19,0.000488,0.812988 
20,0.000488,0.875488 
** ... 14427 like lines cut
*User element, nodes=4,type=U4, properties=3,coordinates=2, variables=8 
8 
*Element, type=U4 
3,21,256,257,22 
4,20,255,256,21 
5,19,254,255,20 
9,5,217,218,6 
10,4,216,217,5 
12,2,213,214,3 
13,256,1003,1004,257 
22,942,2113,2114,943 
33,7100,7790,7791,7101 
38,7049,7734,7735,7050 
39,7790,8363,8364,7791 
40,7789,8362,8363,7790 
47,7734,8318,8319,7735 
48,8363,8771,8772,8364 
55,13287,13869,13870,13288 
66,13811,14382,14383,13812 
69,14393,14437,14438,14394 
70,14392,14436,14437,14393 
74,14385,14432,14433,14386 
75,14384,14431,14432,14385 
** ... 5720 like lines cut
*User element, nodes=5,type=U5, properties=3,coordinates=2, variables=8 
8 
*Element, type=U5 
11,214,215,216,4,3 
14,1001,1002,1003,256,255 
16,952,543,218,217,951 
19,1003,1597,2197,2198,1004 
24,3274,2685,2114,2113,3273 
27,4504,3806,3274,3273,4503 
29,6040,5298,4504,4503,6039 
32,7050,6647,6040,6039,7049 
43,7784,8070,8357,8358,7785 
46,8319,8320,8321,7736,7735 
52,8771,9424,10232,10233,8772 
53,10232,10940,11841,11842,10233 
54,11841,12743,13287,13288,11842 
56,13287,13286,13285,13868,13869 
59,13867,14172,14409,14410,13868 
61,13840,13839,13838,14393,14394 
64,13816,13815,13814,14384,14385 
65,13814,13813,13812,14383,14384 
67,14409,14428,14445,14446,14410 
68,14439,14420,14395,14394,14438 
** ... 2115 like lines cut
*User element, nodes=6,type=U6, properties=3,coordinates=2, variables=8 
8 
*Element, type=U6 
1,942,943,944,213,2,1 
2,13870,13869,13868,14410,14446,14447 
6,18,44,252,253,254,19 
8,218,219,220,28,7,6 
15,254,579,999,1000,1001,255 
17,216,542,949,950,951,217 
18,944,945,946,540,214,213 
21,2114,2115,2116,1529,944,943 
23,2197,2755,3332,3333,3334,2198 
25,4561,3843,3309,3308,3307,4560 
30,6122,6121,6120,6721,7100,7101 
34,7100,7099,7098,7304,7789,7790 
37,7736,7269,7052,7051,7050,7735 
41,8360,8361,8362,7789,7788,7787 
42,8358,8359,8360,7787,7786,7785 
44,8323,8324,8325,8036,7739,7738 
45,8321,8322,8323,7738,7737,7736 
49,8362,8669,8769,8770,8771,8363 
51,8712,8713,8714,8624,8319,8318 
57,13285,13284,13283,13508,13867,13868 
** ... 1500 like lines cut
*User element, nodes=7,type=U7, properties=3,coordinates=2, variables=8 
8 
*Element, type=U7 
7,15,41,246,247,248,42,16 
20,951,1540,2145,2146,2147,1541,952 
26,3307,3306,3305,3842,4558,4559,4560 
28,4560,5348,6095,6096,6097,5349,4561 
35,7785,7300,7091,7090,7089,7299,7784 
36,7739,7272,7057,7056,7055,7271,7738 
50,8357,8662,8756,8757,8758,8663,8358 
106,1568,1273,976,975,974,1272,1567 
116,1590,1904,2186,2187,2188,1905,1591 
162,3294,3562,3826,3827,3828,3563,3295 
170,4526,4099,3826,3825,3824,4098,4525 
214,7060,7061,7062,6868,6662,6661,6660 
228,7064,7063,7062,7194,7280,7281,7282 
*User element, nodes=8,type=U8, properties=3,coordinates=2, variables=8 
8 
*Element, type=U8 
31,6063,6658,7057,7058,7059,6659,6065,6064 
126,2184,2431,2732,2733,2734,2432,2186,2185 
*Elset, elset=E1,generate 
1,9410,1 
*Uel property, elset=E1 
0.0003,0.0003 
*Nset, nset=Node, generate 
1,14447,1 
*Nset, nset=bottom 
1,942,2113,3273,4503,6039,7049,7734,8318,8712,9333,10163,10871,11752,
12669,13231,13811,14382,14429, 
*Nset, nset=top 
22,257,1004,2198,3334,3865,4581,5372,6122,7101,7791,8364,8772,
10233,11842,13288,13870,14447,
*Nset, nset=Left,generate
14429,14447,1
*Nset, nset=Right,generate
1,22,1
*Material, name=SOIL
*Density
1700.,
*Elastic
 6.8e+07, 0.3
*Permeability, specific=9810.
 0.0003,1.
** 
** PREDEFINED FIELDS
** 
** Name: Predefined Field-1   Type: Void ratio
*Initial Conditions, TYPE=RATIO
Node, 1. 
*Step, name=Step-1, nlgeom=NO
*Soils, utol=1.0, creep=none
1., 1., 1e-05, 1., 
** 
** BOUNDARY CONDITIONS
** 
** Name: BC-1 Type: Pore pressure
*Boundary
top, 8, 8, 8.
*Boundary
bottom, 8, 8, 3.
** 
** OUTPUT REQUESTS
** 
*Restart, write, frequency=0
** 
** FIELD OUTPUT: F-Output-1
** 
*Output, field
*Node Output
POR, 
** 
** HISTORY OUTPUT: H-Output-1
** 
*Output, history, variable=PRESELECT
*End Step  
